Version 4
SHEET 1 880 680
WIRE -512 -128 -768 -128
WIRE -384 -128 -512 -128
WIRE -304 -128 -384 -128
WIRE -240 -128 -304 -128
WIRE -64 -128 -160 -128
WIRE -768 -80 -768 -128
WIRE -64 -16 -64 -128
WIRE 224 -16 -64 -16
WIRE -304 16 -304 -128
WIRE 224 16 -304 16
WIRE -384 64 -384 -128
WIRE 224 64 -384 64
WIRE -512 96 -512 -128
WIRE 224 96 -352 96
WIRE 224 128 -112 128
WIRE -112 176 -112 128
WIRE 224 176 48 176
WIRE -512 272 -512 176
WIRE -352 272 -352 96
WIRE -352 272 -512 272
WIRE 48 272 48 176
WIRE -112 304 -112 256
WIRE -512 368 -512 272
WIRE 48 400 48 352
WIRE -512 512 -512 448
FLAG -512 512 0
FLAG -112 304 0
FLAG 48 400 0
SYMBOL LM5122_TRANS 352 144 R0
SYMATTR InstName U1
SYMBOL voltage -768 -96 R0
SYMATTR InstName V1
SYMBOL res -144 -144 R90
WINDOW 0 0 56 VBottom 2
WINDOW 3 32 56 VTop 2
SYMATTR InstName R1
SYMATTR Value 6.5m
SYMBOL res -528 80 R0
SYMATTR InstName R2
SYMATTR Value 30k
SYMBOL res -528 352 R0
SYMATTR InstName R3
SYMATTR Value 5.65k
SYMBOL res -128 160 R0
SYMATTR InstName R4
SYMATTR Value 142k
SYMBOL res 32 256 R0
SYMATTR InstName R5
SYMATTR Value 36k
